13
Frame 29: Geometry 30, Energy: -3.70027 Hartree
Pa 0.4061288447323077 -0.08976541238016694 -0.3790101490117063
O 1.254952903338606 1.300592497878471 -1.710492039392311
H 1.423235307904785 2.126263063189104 -2.168982572168468
O -0.6897034635072017 0.8985152581044776 0.7392888511268122
H -0.6604396481940725 -2.75318582351938 1.208737379748392
O -0.7267008622399928 -1.224681356342465 -1.756391469734919
H -1.143461239275949 -1.634653292711865 -2.516697449105294
O -0.4159082893343445 -1.837569931550451 1.386508613099791
H -1.10540660211809 -1.443270969904924 1.935614943747797
O 2.126699339181174 -1.906734138644281 -0.6237784049086172
O 2.539845055489657 -0.4131429697059945 0.8991842078777545
N 2.933479956243559 -1.479292655230007 0.2919877446507134
O 3.963362706897433 -2.035105436186877 0.5558649841804268
