13
Frame 101: Geometry 102, Energy: -3.71863 Hartree
Pa -1.326181065294541 0.4873388179725915 -0.1744807559097764
O -0.9839363510976837 -1.127474428930075 -1.453173705379261
O -0.789664507535162 2.58114168446586 1.039310013996095
O -1.95763914699508 1.711378032365837 -1.733361848088214
H -0.2556801476805072 -1.039105497080788 2.205038278465658
O -0.4605464731035537 -0.4914567710946631 1.443638488730661
H -0.8243446405986689 -1.97055377374099 -1.880624451984614
H -4.153101802669223 0.1382516485794507 0.8918640407969238
H -2.357461859887365 2.062915906826301 -2.532246669864989
O -3.252842999757043 0.2451532423967384 0.5806783898950973
O 0.7703869498128701 1.795565978150914 -0.2434000920456467
N 0.4053093331245715 2.71846744324383 0.5796594246770909
O 1.120428416987511 3.628330671349167 0.8906862700012633
